Circuit: * C:\Users\Carlos\Desktop\ITBA\3er año\1er cuatri\TC\TP7\TP7\Simulaciones\Filtro_Completo.asc

Direct Newton iteration for .op point succeeded.
.step run=1
.step run=2
.step run=3
.step run=4
.step run=5
.step run=6
.step run=7
.step run=8
.step run=9
.step run=10
.step run=11
.step run=12
.step run=13
.step run=14
.step run=15
.step run=16
.step run=17
.step run=18
.step run=19
.step run=20

Date: Wed Nov 27 18:42:08 2019
Total elapsed time: 1.446 seconds.

tnom = 27
temp = 27
method = trap
totiter = 18
traniter = 0
tranpoints = 0
accept = 0
rejected = 0
matrix size = 552
fillins = 658
solver = Normal
Matrix Compiler1:    2899 opcodes
Matrix Compiler2: 54.45 KB object code size
